LTspice 24.1.1 for Windows
Circuit: C:\Users\dylan\OneDrive\Desktop\Octave Pedal.net
Start Time: Wed Apr  1 19:29:52 2026
solver = Normal
Maximum thread count: 4
tnom = 27
temp = 27
method = modified trap
Per .tran options, skipping operating point for transient analysis.
Changing Tseed to 9.76562e-09
Changing Tseed to 9.76563e-11
Changing Tseed to 9.76562e-08
Changing Tseed to 9.76562e-12
Changing Tseed to 9.76563e-07
Changing Tseed to 9.76562e-13
Total elapsed time: 0.662 seconds.

Files loaded:
C:\Users\dylan\OneDrive\Desktop\Octave Pedal.net
C:\Users\dylan\AppData\Local\LTspice\lib\cmp\standard.dio
C:\Users\dylan\AppData\Local\LTspice\lib\cmp\standard.mos

